
.global 0 

.param X1=100 X2=0.1

R01 vin vout 'X1'
C01 vout 0 'X2'

V0 vin 0 ac 1

.ac dec 10 100 1G data=list

.data list X1 X2
+ 3989.061 4059.8759 5.861e-06 5.4022e-06 1.1647e-06 0.48095 0.45015 
+ 9077.319 8620.3986 3.9849e-05 4.2943e-05 4.8221e-05 1.3567 1.6698 
+ 5496.839 3214.6261 3.0961e-05 3.4964e-05 4.8524e-05 1.6171 0.12345 
+ 6537.5942 6233.4213 3.678e-06 3.6735e-05 6.3507e-06 1.3112 0.53892 
+ 6248.1967 9439.0919 3.6315e-06 3.2589e-05 2.3466e-05 0.73229 1.0649 
+ 7284.2853 1430.0856 6.9559e-06 2.5901e-05 3.2896e-05 1.689 0.36594 
+ 1263.9911 1485.7989 3.9483e-05 1.6441e-05 1.4637e-05 0.45977 1.1446 
+ 5750.9442 1185.5623 4.7833e-06 3.315e-05 3.7771e-05 0.95969 1.4371 
+ 1288.6556 7133.3066 1.2031e-05 6.0371e-06 2.7985e-05 1.7186 0.90306 
+ 8444.2809 6387.6567 1.2319e-05 7.5443e-06 2.1493e-05 0.48195 1.1715 
.enddata

.printfile ac v(vout) file=acResult
