
.global 0 

.param X1=100 X2=0.1

R01 vin vout 'X1'
C01 vout 0 'X2'

V0 vin 0 pulse( 0 3.3 0 1p 1m)

.option hmax=1u
.tran 1u 1m data=list

.data list X1 X2
+ 3169.7565 5151.0858 3.1733e-05 5.7005e-06 4.2871e-05 0.34818 1.7114 
+ 8572.3219 6753.9139 3.1268e-05 2.048e-05 2.3417e-06 1.358 0.89564 
+ 8714.9149 9256.0244 1.6518e-05 4.4225e-05 3.4637e-05 0.62327 1.3593 
+ 9672.5098 2454.1532 4.0184e-05 2.7488e-05 4.8953e-05 0.75353 1.3363 
+ 5400.0981 7440.7186 4.9974e-05 1.8564e-05 1.4292e-05 0.2803 1.496 
+ 2982.7909 6199.6499 4.9052e-05 1.056e-05 6.8449e-06 1.4742 0.2817 
+ 3035.8778 4899.6908 6.509e-06 2.2148e-05 3.4321e-05 1.1249 0.82316 
+ 5831.0902 8958.185 1.175e-05 4.7818e-05 4.5489e-05 1.3294 1.1126 
+ 7858.9874 4537.4658 1.3574e-06 6.359e-06 3.0613e-05 1.4492 1.6779 
+ 4128.1044 2610.7764 3.0442e-05 2.3633e-05 4.5017e-05 0.121 1.5032 
.enddata

.printfile tran v(vout) file=tranResult
