
.option compat
.lib model

.global 0 
      * R1 R2 w1  w2 wbias Vbias, VcommonMode
.param X1=1, X2=1, X3=1, X4=1, X5=1

R1 vdd vout1 'X1'
R2 vdd vout2 'X1'

* drain gate source bulk
m1 vout1 vin ACgnd 0 CMOSN w='X2' l=0.18u
m2 vout2 vinNeg ACgnd 0 CMOSN w='X2' l=0.18u

m3 ACgnd vbias gnd 0 CMOSN w='X3' l=0.18u

C1 vout1 0 5f
C2 vout2 0 5f

* vdd and vbias
V0 vdd 0 dc 1.8
vbias vbias 0 dc 'X4'

* common mode
V1 vin 0 dc 'X5'

* vin+ and vin-. flip connections => differential
V2 vin vinNeg ac 0.001


.ac dec 10 100 1G data=list

.data list X1 X2 X3 X4 X5
+ 40178.3026 0.005 0.005 1.6301 0.27387 
+ 40178.2911 0.005 0.005 1.6303 0.27387 
+ 40178.2951 0.005 0.005 1.6288 0.27387 
+ 40178.3069 0.005 0.005 1.6228 0.27387 
+ 40178.321 0.005 0.005 1.6277 0.27387 
+ 40178.2828 0.005 0.005 1.628 0.27387 
+ 40178.2949 0.005 0.005 1.6269 0.27387 
+ 40178.2908 0.005 0.005 1.6192 0.27387 
+ 40178.2863 0.005 0.005 1.6228 0.27387 
+ 100000 0.005 1.8e-07 1.8 0 
+ 40178.2989 0.005 0.005 1.6192 0.27387 
+ 40178.2804 0.005 0.005 1.6291 0.27387 
+ 40178.313 0.005 0.005 1.6224 0.27387 
+ 40178.3045 0.005 0.005 1.628 0.27387 
+ 40178.3201 0.005 0.005 1.6308 0.27387 
+ 40178.2785 0.005 0.005 1.6276 0.27387 
+ 40178.2804 0.005 0.005 1.6291 0.27387 
+ 40178.2785 0.005 0.005 1.6276 0.27387 
+ 40178.3115 0.005 0.005 1.6287 0.27387 
+ 40178.2804 0.005 0.005 1.6278 0.27387 
+ 40178.2989 0.005 0.005 1.6192 0.27387 
+ 40178.2776 0.005 0.005 1.6301 0.27387 
+ 40178.2979 0.005 0.005 1.629 0.27387 
+ 40178.2804 0.005 0.005 1.6281 0.27387 
+ 100000 1.8e-07 0.005 0 1.8 
+ 40178.3066 0.005 0.005 1.6278 0.27387 
+ 40178.2804 0.005 0.005 1.6278 0.27387 
+ 40178.2819 0.005 0.005 1.6228 0.27387 
+ 40178.2994 0.005 0.005 1.6227 0.27387 
+ 40178.3002 0.005 0.005 1.6281 0.27387 
+ 40178.2951 0.005 0.005 1.6288 0.27387 
+ 40178.2828 0.005 0.005 1.628 0.27387 
+ 40178.2979 0.005 0.005 1.629 0.27387 
+ 40178.2994 0.005 0.005 1.6298 0.27387 
+ 40178.2911 0.005 0.005 1.6303 0.27387 
+ 40178.288 0.005 0.005 1.6191 0.27387 
+ 40178.3026 0.005 0.005 1.6301 0.27387 
.enddata

.printfile ac v(vout1,vout2) file=acResult




