
.option compat
.lib model

.global 0 

m1 vout vin vdd vdd CMOSP w=0.27u l=0.27u
m2 vout vin 0 0 CMOSN w=0.27u l=0.18u

C1 vout 0 5f

V0 vdd 0 dc 1.8
V1 vin 0 pulse( 0 1.8 0.49u 0.02u)

.tran 1n 1u

.printfile tran v(vin) v(vout) file=tranResult
